---- qbsp / ericw-tools v0.18.1 ----
Input file: TestLevel.map
Output file: TestLevel.bsp

---- LoadMapFile ----
*** WARNING 06: No info_player_deathmatch entities in level
          150 faces
           25 brushes
           31 entities
            4 unique texnames
           52 texinfo

Opened WAD: D:/starter/wads/START.WAD
Processing hull 0...
---- Brush_LoadEntity ----
           25 brushes
           34 planes
---- CSGFaces ----
          150 brushfaces
          124 csgfaces
          116 mergedfaces
---- SolidBSP ----
          123 split nodes
           40 solid leafs
           84 empty leafs
            0 water leafs
            0 detail leafs
            0 detail illusionary leafs
            0 detail fence leafs
            0 illusionary visblocker leafs
          533 leaffaces
          520 nodefaces
---- Portalize ----
           84 vis leafs
           84 vis clusters
          181 vis portals
---- FillOutside ----
           68 outleafs
---- MergeAll ----
           70 mergefaces
---- SolidBSP ----
           35 split nodes
           22 solid leafs
           14 empty leafs
            0 water leafs
            0 detail leafs
            0 detail illusionary leafs
            0 detail fence leafs
            0 illusionary visblocker leafs
          232 leaffaces
          202 nodefaces
---- Portalize ----
           14 vis leafs
           14 vis clusters
           23 vis portals
---- Tjunc ----
          138 world edges
          654 edge points
          173 edges added by tjunctions
            0 faces added by tjunctions
---- MakeFaceEdges ----
---- GrowRegions ----
Processing hull 1...
Processing hull 2...
---- WriteBSPFile ----
Wrote TestLevel.bsp
           59 planes             1180
          282 vertexes           3384
           35 nodes               840
           24 texinfo             960
          202 faces              4040
           99 clipnodes           792
           15 leafs               420
          232 marksurfaces        464
          980 surfedges          3920
          491 edges              1964
            4 textures          23732
              lightdata             0
              visdata               0
              entdata            1928

0.157 seconds elapsed
Peak memory usage: 1459892 (1.4M)
